  0
SECTION
  2
ENTITIES
999
DXF created from EnergyPlus
999
Program Version,EnergyPlus, Version 8.4.0-09f5359d8a, YMD=2020.04.15 15:47
999
Polygon Action,TRIANGULATE3DFACE
999
Color Scheme,Default
999
Text - True North
  0
TEXT
  8
1
  6
Continuous
 62
  3
 10
      -10.20190
 20
        3.80420
 30
        0.10000
 40
 .25
  1
True North
 41
 0.0
  7
MONOTXT
210
0.0
220
0.0
230
1.0
999
Text - Building Title
  0
TEXT
  8
1
  6
Continuous
 62
  3
 10
      -13.20190
 20
       -0.19580
 30
        0.10000
 40
 .4
  1
Building - Building
 41
 0.0
  7
MONOTXT
210
0.0
220
0.0
230
1.0
999
North Arrow Stem
  0
3DFACE
  8
1
 62
  3
 10
       -9.20190
 20
        3.80420
 30
        0.10000
 11
       -9.20190
 21
        3.80420
 31
        0.00000
 12
       -9.20190
 22
        0.80420
 32
        0.00000
 13
       -9.20190
 23
        0.80420
 33
        0.10000
999
North Arrow Head 1
  0
3DFACE
  8
1
 62
  3
 10
       -9.20190
 20
        3.80420
 30
        0.10000
 11
       -9.20190
 21
        3.80420
 31
        0.00000
 12
       -9.70190
 22
        2.93818
 32
        0.00000
 13
       -9.70190
 23
        2.93818
 33
        0.10000
999
North Arrow Head 2
  0
3DFACE
  8
1
 62
  3
 10
       -9.20190
 20
        3.80420
 30
        0.10000
 11
       -9.20190
 21
        3.80420
 31
        0.00000
 12
       -8.70190
 22
        2.93818
 32
        0.00000
 13
       -8.70190
 23
        2.93818
 33
        0.10000
999
North Arrow Side 1
  0
3DFACE
  8
1
 62
  3
 10
       -9.70190
 20
        5.30420
 30
        0.10000
 11
       -9.70190
 21
        5.30420
 31
        0.00000
 12
       -9.70190
 22
        4.30420
 32
        0.00000
 13
       -9.70190
 23
        4.30420
 33
        0.10000
999
North Arrow Side 2
  0
3DFACE
  8
1
 62
  3
 10
       -9.70190
 20
        5.30420
 30
        0.10000
 11
       -9.70190
 21
        5.30420
 31
        0.00000
 12
       -8.70190
 22
        4.30420
 32
        0.00000
 13
       -8.70190
 23
        4.30420
 33
        0.10000
999
North Arrow Side 3
  0
3DFACE
  8
1
 62
  3
 10
       -8.70190
 20
        5.30420
 30
        0.10000
 11
       -8.70190
 21
        5.30420
 31
        0.00000
 12
       -8.70190
 22
        4.30420
 32
        0.00000
 13
       -8.70190
 23
        4.30420
 33
        0.10000
999
Zone Names
999
Zone=1:CONSTRUCTION0
999
Zone=2:CONSTRUCTION1
999
Zone=3:CONSTRUCTION2
999
Zone=4:CONSTRUCTION3
999
CONSTRUCTION0:CONSTRUCTION0:F0
  0
3DFACE
  8
CONSTRUCTION0
 62
 43
 10
        0.79810
 20
        0.80420
 30
       14.00000
 11
        0.79810
 21
        0.80420
 31
        9.00000
 12
       15.59810
 22
        0.80420
 32
        9.00000
 13
       15.59810
 23
        0.80420
 33
       14.00000
999
CONSTRUCTION0:CONSTRUCTION0:F0:W0
  0
3DFACE
  8
CONSTRUCTION0
 62
143
 10
        2.34810
 20
        0.80420
 30
       11.40000
 11
        2.34810
 21
        0.80420
 31
        9.50000
 12
        3.44810
 22
        0.80420
 32
        9.50000
 13
        3.44810
 23
        0.80420
 33
       11.40000
999
CONSTRUCTION0:CONSTRUCTION0:F0:W1
  0
3DFACE
  8
CONSTRUCTION0
 62
143
 10
        4.99810
 20
        0.80420
 30
       11.40000
 11
        4.99810
 21
        0.80420
 31
        9.50000
 12
        6.09810
 22
        0.80420
 32
        9.50000
 13
        6.09810
 23
        0.80420
 33
       11.40000
999
CONSTRUCTION0:CONSTRUCTION0:F0:W2
  0
3DFACE
  8
CONSTRUCTION0
 62
143
 10
        7.64810
 20
        0.80420
 30
       11.40000
 11
        7.64810
 21
        0.80420
 31
        9.50000
 12
        8.74810
 22
        0.80420
 32
        9.50000
 13
        8.74810
 23
        0.80420
 33
       11.40000
999
CONSTRUCTION0:CONSTRUCTION0:F0:W3
  0
3DFACE
  8
CONSTRUCTION0
 62
143
 10
       10.29810
 20
        0.80420
 30
       11.40000
 11
       10.29810
 21
        0.80420
 31
        9.50000
 12
       11.39810
 22
        0.80420
 32
        9.50000
 13
       11.39810
 23
        0.80420
 33
       11.40000
999
CONSTRUCTION0:CONSTRUCTION0:F0:W4
  0
3DFACE
  8
CONSTRUCTION0
 62
143
 10
       12.94810
 20
        0.80420
 30
       11.40000
 11
       12.94810
 21
        0.80420
 31
        9.50000
 12
       14.04810
 22
        0.80420
 32
        9.50000
 13
       14.04810
 23
        0.80420
 33
       11.40000
999
CONSTRUCTION0:CONSTRUCTION0:F1
  0
3DFACE
  8
CONSTRUCTION0
 62
 43
 10
       15.59810
 20
        0.80420
 30
       14.00000
 11
       15.59810
 21
        0.80420
 31
        9.00000
 12
       15.59810
 22
       35.40420
 32
        9.00000
 13
       15.59810
 23
       35.40420
 33
       14.00000
999
CONSTRUCTION0:CONSTRUCTION0:F1:W0
  0
3DFACE
  8
CONSTRUCTION0
 62
143
 10
       15.59810
 20
        2.10420
 30
       11.40000
 11
       15.59810
 21
        2.10420
 31
        9.50000
 12
       15.59810
 22
        3.20420
 32
        9.50000
 13
       15.59810
 23
        3.20420
 33
       11.40000
999
CONSTRUCTION0:CONSTRUCTION0:F1:W1
  0
3DFACE
  8
CONSTRUCTION0
 62
143
 10
       15.59810
 20
       16.30420
 30
       11.40000
 11
       15.59810
 21
       16.30420
 31
        9.50000
 12
       15.59810
 22
       17.40420
 32
        9.50000
 13
       15.59810
 23
       17.40420
 33
       11.40000
999
CONSTRUCTION0:CONSTRUCTION0:F1:W2
  0
3DFACE
  8
CONSTRUCTION0
 62
143
 10
       15.59810
 20
       14.55420
 30
       11.40000
 11
       15.59810
 21
       14.55420
 31
        9.50000
 12
       15.59810
 22
       15.65420
 32
        9.50000
 13
       15.59810
 23
       15.65420
 33
       11.40000
999
CONSTRUCTION0:CONSTRUCTION0:F1:W3
  0
3DFACE
  8
CONSTRUCTION0
 62
143
 10
       15.59810
 20
       22.85420
 30
       11.40000
 11
       15.59810
 21
       22.85420
 31
        9.50000
 12
       15.59810
 22
       23.95420
 32
        9.50000
 13
       15.59810
 23
       23.95420
 33
       11.40000
999
CONSTRUCTION0:CONSTRUCTION0:F1:W4
  0
3DFACE
  8
CONSTRUCTION0
 62
143
 10
       15.59810
 20
       27.00420
 30
       11.40000
 11
       15.59810
 21
       27.00420
 31
        9.50000
 12
       15.59810
 22
       28.10420
 32
        9.50000
 13
       15.59810
 23
       28.10420
 33
       11.40000
999
CONSTRUCTION0:CONSTRUCTION0:F1:W5
  0
3DFACE
  8
CONSTRUCTION0
 62
143
 10
       15.59810
 20
        3.85420
 30
       11.40000
 11
       15.59810
 21
        3.85420
 31
        9.50000
 12
       15.59810
 22
        4.95420
 32
        9.50000
 13
       15.59810
 23
        4.95420
 33
       11.40000
999
CONSTRUCTION0:CONSTRUCTION0:F1:W6
  0
3DFACE
  8
CONSTRUCTION0
 62
143
 10
       15.59810
 20
       18.70420
 30
       11.40000
 11
       15.59810
 21
       18.70420
 31
        9.50000
 12
       15.59810
 22
       19.80420
 32
        9.50000
 13
       15.59810
 23
       19.80420
 33
       11.40000
999
CONSTRUCTION0:CONSTRUCTION0:F1:W7
  0
3DFACE
  8
CONSTRUCTION0
 62
143
 10
       15.59810
 20
       20.45420
 30
       11.40000
 11
       15.59810
 21
       20.45420
 31
        9.50000
 12
       15.59810
 22
       21.55420
 32
        9.50000
 13
       15.59810
 23
       21.55420
 33
       11.40000
999
CONSTRUCTION0:CONSTRUCTION0:F1:W8
  0
3DFACE
  8
CONSTRUCTION0
 62
143
 10
       15.59810
 20
       24.60420
 30
       11.40000
 11
       15.59810
 21
       24.60420
 31
        9.50000
 12
       15.59810
 22
       25.70420
 32
        9.50000
 13
       15.59810
 23
       25.70420
 33
       11.40000
999
CONSTRUCTION0:CONSTRUCTION0:F1:W9
  0
3DFACE
  8
CONSTRUCTION0
 62
143
 10
       15.59810
 20
       28.75420
 30
       11.40000
 11
       15.59810
 21
       28.75420
 31
        9.50000
 12
       15.59810
 22
       29.85420
 32
        9.50000
 13
       15.59810
 23
       29.85420
 33
       11.40000
999
CONSTRUCTION0:CONSTRUCTION0:F1:W10
  0
3DFACE
  8
CONSTRUCTION0
 62
143
 10
       15.59810
 20
        8.00420
 30
       11.40000
 11
       15.59810
 21
        8.00420
 31
        9.50000
 12
       15.59810
 22
        9.10420
 32
        9.50000
 13
       15.59810
 23
        9.10420
 33
       11.40000
999
CONSTRUCTION0:CONSTRUCTION0:F1:W11
  0
3DFACE
  8
CONSTRUCTION0
 62
143
 10
       15.59810
 20
       12.15420
 30
       11.40000
 11
       15.59810
 21
       12.15420
 31
        9.50000
 12
       15.59810
 22
       13.25420
 32
        9.50000
 13
       15.59810
 23
       13.25420
 33
       11.40000
999
CONSTRUCTION0:CONSTRUCTION0:F1:W12
  0
3DFACE
  8
CONSTRUCTION0
 62
143
 10
       15.59810
 20
       10.40420
 30
       11.40000
 11
       15.59810
 21
       10.40420
 31
        9.50000
 12
       15.59810
 22
       11.50420
 32
        9.50000
 13
       15.59810
 23
       11.50420
 33
       11.40000
999
CONSTRUCTION0:CONSTRUCTION0:F1:W13
  0
3DFACE
  8
CONSTRUCTION0
 62
143
 10
       15.59810
 20
        6.25420
 30
       11.40000
 11
       15.59810
 21
        6.25420
 31
        9.50000
 12
       15.59810
 22
        7.35420
 32
        9.50000
 13
       15.59810
 23
        7.35420
 33
       11.40000
999
CONSTRUCTION0:CONSTRUCTION0:F2
  0
3DFACE
  8
CONSTRUCTION0
 62
 43
 10
       15.59810
 20
       35.40420
 30
       14.00000
 11
       15.59810
 21
       35.40420
 31
        9.00000
 12
        0.79810
 22
       35.40420
 32
        9.00000
 13
        0.79810
 23
       35.40420
 33
       14.00000
999
CONSTRUCTION0:CONSTRUCTION0:F2:W0
  0
3DFACE
  8
CONSTRUCTION0
 62
143
 10
       11.09810
 20
       35.40420
 30
       11.40000
 11
       11.09810
 21
       35.40420
 31
        9.50000
 12
        9.99810
 22
       35.40420
 32
        9.50000
 13
        9.99810
 23
       35.40420
 33
       11.40000
999
CONSTRUCTION0:CONSTRUCTION0:F2:W1
  0
3DFACE
  8
CONSTRUCTION0
 62
143
 10
        6.39810
 20
       35.40420
 30
       11.40000
 11
        6.39810
 21
       35.40420
 31
        9.50000
 12
        5.29810
 22
       35.40420
 32
        9.50000
 13
        5.29810
 23
       35.40420
 33
       11.40000
999
CONSTRUCTION0:CONSTRUCTION0:F2:W2
  0
3DFACE
  8
CONSTRUCTION0
 62
143
 10
        2.54810
 20
       35.40420
 30
       11.40000
 11
        2.54810
 21
       35.40420
 31
        9.50000
 12
        1.44810
 22
       35.40420
 32
        9.50000
 13
        1.44810
 23
       35.40420
 33
       11.40000
999
CONSTRUCTION0:CONSTRUCTION0:F3
  0
3DFACE
  8
CONSTRUCTION0
 62
 43
 10
        0.79810
 20
       35.40420
 30
       14.00000
 11
        0.79810
 21
       35.40420
 31
        9.00000
 12
        0.79810
 22
        0.80420
 32
        9.00000
 13
        0.79810
 23
        0.80420
 33
       14.00000
999
CONSTRUCTION0:CONSTRUCTION0:F3:W0
  0
3DFACE
  8
CONSTRUCTION0
 62
143
 10
        0.79810
 20
        3.20420
 30
       11.40000
 11
        0.79810
 21
        3.20420
 31
        9.50000
 12
        0.79810
 22
        2.10420
 32
        9.50000
 13
        0.79810
 23
        2.10420
 33
       11.40000
999
CONSTRUCTION0:CONSTRUCTION0:F3:W1
  0
3DFACE
  8
CONSTRUCTION0
 62
143
 10
        0.79810
 20
        7.35420
 30
       11.40000
 11
        0.79810
 21
        7.35420
 31
        9.50000
 12
        0.79810
 22
        6.25420
 32
        9.50000
 13
        0.79810
 23
        6.25420
 33
       11.40000
999
CONSTRUCTION0:CONSTRUCTION0:F3:W2
  0
3DFACE
  8
CONSTRUCTION0
 62
143
 10
        0.79810
 20
       11.50420
 30
       11.40000
 11
        0.79810
 21
       11.50420
 31
        9.50000
 12
        0.79810
 22
       10.40420
 32
        9.50000
 13
        0.79810
 23
       10.40420
 33
       11.40000
999
CONSTRUCTION0:CONSTRUCTION0:F3:W3
  0
3DFACE
  8
CONSTRUCTION0
 62
143
 10
        0.79810
 20
       19.80420
 30
       11.40000
 11
        0.79810
 21
       19.80420
 31
        9.50000
 12
        0.79810
 22
       18.70420
 32
        9.50000
 13
        0.79810
 23
       18.70420
 33
       11.40000
999
CONSTRUCTION0:CONSTRUCTION0:F3:W4
  0
3DFACE
  8
CONSTRUCTION0
 62
143
 10
        0.79810
 20
       25.70420
 30
       11.40000
 11
        0.79810
 21
       25.70420
 31
        9.50000
 12
        0.79810
 22
       24.60420
 32
        9.50000
 13
        0.79810
 23
       24.60420
 33
       11.40000
999
CONSTRUCTION0:CONSTRUCTION0:F3:W5
  0
3DFACE
  8
CONSTRUCTION0
 62
143
 10
        0.79810
 20
       29.85420
 30
       11.40000
 11
        0.79810
 21
       29.85420
 31
        9.50000
 12
        0.79810
 22
       28.75420
 32
        9.50000
 13
        0.79810
 23
       28.75420
 33
       11.40000
999
CONSTRUCTION0:CONSTRUCTION0:F3:W6
  0
3DFACE
  8
CONSTRUCTION0
 62
143
 10
        0.79810
 20
        4.95420
 30
       11.40000
 11
        0.79810
 21
        4.95420
 31
        9.50000
 12
        0.79810
 22
        3.85420
 32
        9.50000
 13
        0.79810
 23
        3.85420
 33
       11.40000
999
CONSTRUCTION0:CONSTRUCTION0:F3:W7
  0
3DFACE
  8
CONSTRUCTION0
 62
143
 10
        0.79810
 20
        9.10420
 30
       11.40000
 11
        0.79810
 21
        9.10420
 31
        9.50000
 12
        0.79810
 22
        8.00420
 32
        9.50000
 13
        0.79810
 23
        8.00420
 33
       11.40000
999
CONSTRUCTION0:CONSTRUCTION0:F3:W8
  0
3DFACE
  8
CONSTRUCTION0
 62
143
 10
        0.79810
 20
       15.65420
 30
       11.40000
 11
        0.79810
 21
       15.65420
 31
        9.50000
 12
        0.79810
 22
       14.55420
 32
        9.50000
 13
        0.79810
 23
       14.55420
 33
       11.40000
999
CONSTRUCTION0:CONSTRUCTION0:F3:W9
  0
3DFACE
  8
CONSTRUCTION0
 62
143
 10
        0.79810
 20
       28.10420
 30
       11.40000
 11
        0.79810
 21
       28.10420
 31
        9.50000
 12
        0.79810
 22
       27.00420
 32
        9.50000
 13
        0.79810
 23
       27.00420
 33
       11.40000
999
CONSTRUCTION0:CONSTRUCTION0:F3:W10
  0
3DFACE
  8
CONSTRUCTION0
 62
143
 10
        0.79810
 20
       23.95420
 30
       11.40000
 11
        0.79810
 21
       23.95420
 31
        9.50000
 12
        0.79810
 22
       22.85420
 32
        9.50000
 13
        0.79810
 23
       22.85420
 33
       11.40000
999
CONSTRUCTION0:CONSTRUCTION0:F3:W11
  0
3DFACE
  8
CONSTRUCTION0
 62
143
 10
        0.79810
 20
       13.25420
 30
       11.40000
 11
        0.79810
 21
       13.25420
 31
        9.50000
 12
        0.79810
 22
       12.15420
 32
        9.50000
 13
        0.79810
 23
       12.15420
 33
       11.40000
999
CONSTRUCTION0:CONSTRUCTION0:F3:W12
  0
3DFACE
  8
CONSTRUCTION0
 62
143
 10
        0.79810
 20
       17.40420
 30
       11.40000
 11
        0.79810
 21
       17.40420
 31
        9.50000
 12
        0.79810
 22
       16.30420
 32
        9.50000
 13
        0.79810
 23
       16.30420
 33
       11.40000
999
CONSTRUCTION0:CONSTRUCTION0:F3:W13
  0
3DFACE
  8
CONSTRUCTION0
 62
143
 10
        0.79810
 20
       21.55420
 30
       11.40000
 11
        0.79810
 21
       21.55420
 31
        9.50000
 12
        0.79810
 22
       20.45420
 32
        9.50000
 13
        0.79810
 23
       20.45420
 33
       11.40000
999
CONSTRUCTION0:CONSTRUCTION0:F4
  0
3DFACE
  8
CONSTRUCTION0
 62
  8
 10
        0.79810
 20
        0.80420
 30
        9.00000
 11
        0.79810
 21
       35.40420
 31
        9.00000
 12
       15.59810
 22
       35.40420
 32
        9.00000
 13
       15.59810
 23
        0.80420
 33
        9.00000
999
CONSTRUCTION0:CONSTRUCTION0:F5
  0
3DFACE
  8
CONSTRUCTION0
 62
 15
 10
        0.79810
 20
        0.80420
 30
       14.00000
 11
       15.59810
 21
        0.80420
 31
       14.00000
 12
       15.59810
 22
       35.40420
 32
       14.00000
 13
        0.79810
 23
       35.40420
 33
       14.00000
999
CONSTRUCTION1:CONSTRUCTION1:F0
  0
3DFACE
  8
CONSTRUCTION1
 62
 43
 10
        0.79810
 20
        0.80420
 30
        9.00000
 11
        0.79810
 21
        0.80420
 31
        6.00000
 12
       15.59810
 22
        0.80420
 32
        6.00000
 13
       15.59810
 23
        0.80420
 33
        9.00000
999
CONSTRUCTION1:CONSTRUCTION1:F0:W0
  0
3DFACE
  8
CONSTRUCTION1
 62
143
 10
        2.34810
 20
        0.80420
 30
        8.55000
 11
        2.34810
 21
        0.80420
 31
        6.65000
 12
        3.44810
 22
        0.80420
 32
        6.65000
 13
        3.44810
 23
        0.80420
 33
        8.55000
999
CONSTRUCTION1:CONSTRUCTION1:F0:W1
  0
3DFACE
  8
CONSTRUCTION1
 62
143
 10
        4.99810
 20
        0.80420
 30
        8.55000
 11
        4.99810
 21
        0.80420
 31
        6.65000
 12
        6.09810
 22
        0.80420
 32
        6.65000
 13
        6.09810
 23
        0.80420
 33
        8.55000
999
CONSTRUCTION1:CONSTRUCTION1:F0:W2
  0
3DFACE
  8
CONSTRUCTION1
 62
143
 10
        7.64810
 20
        0.80420
 30
        8.55000
 11
        7.64810
 21
        0.80420
 31
        6.65000
 12
        8.74810
 22
        0.80420
 32
        6.65000
 13
        8.74810
 23
        0.80420
 33
        8.55000
999
CONSTRUCTION1:CONSTRUCTION1:F0:W3
  0
3DFACE
  8
CONSTRUCTION1
 62
143
 10
       10.29810
 20
        0.80420
 30
        8.55000
 11
       10.29810
 21
        0.80420
 31
        6.65000
 12
       11.39810
 22
        0.80420
 32
        6.65000
 13
       11.39810
 23
        0.80420
 33
        8.55000
999
CONSTRUCTION1:CONSTRUCTION1:F0:W4
  0
3DFACE
  8
CONSTRUCTION1
 62
143
 10
       12.94810
 20
        0.80420
 30
        8.55000
 11
       12.94810
 21
        0.80420
 31
        6.65000
 12
       14.04810
 22
        0.80420
 32
        6.65000
 13
       14.04810
 23
        0.80420
 33
        8.55000
999
CONSTRUCTION1:CONSTRUCTION1:F1
  0
3DFACE
  8
CONSTRUCTION1
 62
 43
 10
       15.59810
 20
        0.80420
 30
        9.00000
 11
       15.59810
 21
        0.80420
 31
        6.00000
 12
       15.59810
 22
       35.40420
 32
        6.00000
 13
       15.59810
 23
       35.40420
 33
        9.00000
999
CONSTRUCTION1:CONSTRUCTION1:F1:W0
  0
3DFACE
  8
CONSTRUCTION1
 62
143
 10
       15.59810
 20
        2.10420
 30
        8.55000
 11
       15.59810
 21
        2.10420
 31
        6.65000
 12
       15.59810
 22
        3.20420
 32
        6.65000
 13
       15.59810
 23
        3.20420
 33
        8.55000
999
CONSTRUCTION1:CONSTRUCTION1:F1:W1
  0
3DFACE
  8
CONSTRUCTION1
 62
143
 10
       15.59810
 20
        8.00420
 30
        8.55000
 11
       15.59810
 21
        8.00420
 31
        6.65000
 12
       15.59810
 22
        9.10420
 32
        6.65000
 13
       15.59810
 23
        9.10420
 33
        8.55000
999
CONSTRUCTION1:CONSTRUCTION1:F1:W2
  0
3DFACE
  8
CONSTRUCTION1
 62
143
 10
       15.59810
 20
       12.15420
 30
        8.55000
 11
       15.59810
 21
       12.15420
 31
        6.65000
 12
       15.59810
 22
       13.25420
 32
        6.65000
 13
       15.59810
 23
       13.25420
 33
        8.55000
999
CONSTRUCTION1:CONSTRUCTION1:F1:W3
  0
3DFACE
  8
CONSTRUCTION1
 62
143
 10
       15.59810
 20
       10.40420
 30
        8.55000
 11
       15.59810
 21
       10.40420
 31
        6.65000
 12
       15.59810
 22
       11.50420
 32
        6.65000
 13
       15.59810
 23
       11.50420
 33
        8.55000
999
CONSTRUCTION1:CONSTRUCTION1:F1:W4
  0
3DFACE
  8
CONSTRUCTION1
 62
143
 10
       15.59810
 20
       16.30420
 30
        8.55000
 11
       15.59810
 21
       16.30420
 31
        6.65000
 12
       15.59810
 22
       17.40420
 32
        6.65000
 13
       15.59810
 23
       17.40420
 33
        8.55000
999
CONSTRUCTION1:CONSTRUCTION1:F1:W5
  0
3DFACE
  8
CONSTRUCTION1
 62
143
 10
       15.59810
 20
       14.55420
 30
        8.55000
 11
       15.59810
 21
       14.55420
 31
        6.65000
 12
       15.59810
 22
       15.65420
 32
        6.65000
 13
       15.59810
 23
       15.65420
 33
        8.55000
999
CONSTRUCTION1:CONSTRUCTION1:F1:W6
  0
3DFACE
  8
CONSTRUCTION1
 62
143
 10
       15.59810
 20
       20.45420
 30
        8.55000
 11
       15.59810
 21
       20.45420
 31
        6.65000
 12
       15.59810
 22
       21.55420
 32
        6.65000
 13
       15.59810
 23
       21.55420
 33
        8.55000
999
CONSTRUCTION1:CONSTRUCTION1:F1:W7
  0
3DFACE
  8
CONSTRUCTION1
 62
143
 10
       15.59810
 20
       18.70420
 30
        8.55000
 11
       15.59810
 21
       18.70420
 31
        6.65000
 12
       15.59810
 22
       19.80420
 32
        6.65000
 13
       15.59810
 23
       19.80420
 33
        8.55000
999
CONSTRUCTION1:CONSTRUCTION1:F1:W8
  0
3DFACE
  8
CONSTRUCTION1
 62
143
 10
       15.59810
 20
       24.60420
 30
        8.55000
 11
       15.59810
 21
       24.60420
 31
        6.65000
 12
       15.59810
 22
       25.70420
 32
        6.65000
 13
       15.59810
 23
       25.70420
 33
        8.55000
999
CONSTRUCTION1:CONSTRUCTION1:F1:W9
  0
3DFACE
  8
CONSTRUCTION1
 62
143
 10
       15.59810
 20
       28.75420
 30
        8.55000
 11
       15.59810
 21
       28.75420
 31
        6.65000
 12
       15.59810
 22
       29.85420
 32
        6.65000
 13
       15.59810
 23
       29.85420
 33
        8.55000
999
CONSTRUCTION1:CONSTRUCTION1:F1:W10
  0
3DFACE
  8
CONSTRUCTION1
 62
143
 10
       15.59810
 20
        3.85420
 30
        8.55000
 11
       15.59810
 21
        3.85420
 31
        6.65000
 12
       15.59810
 22
        4.95420
 32
        6.65000
 13
       15.59810
 23
        4.95420
 33
        8.55000
999
CONSTRUCTION1:CONSTRUCTION1:F1:W11
  0
3DFACE
  8
CONSTRUCTION1
 62
143
 10
       15.59810
 20
        6.25420
 30
        8.55000
 11
       15.59810
 21
        6.25420
 31
        6.65000
 12
       15.59810
 22
        7.35420
 32
        6.65000
 13
       15.59810
 23
        7.35420
 33
        8.55000
999
CONSTRUCTION1:CONSTRUCTION1:F1:W12
  0
3DFACE
  8
CONSTRUCTION1
 62
143
 10
       15.59810
 20
       22.85420
 30
        8.55000
 11
       15.59810
 21
       22.85420
 31
        6.65000
 12
       15.59810
 22
       23.95420
 32
        6.65000
 13
       15.59810
 23
       23.95420
 33
        8.55000
999
CONSTRUCTION1:CONSTRUCTION1:F1:W13
  0
3DFACE
  8
CONSTRUCTION1
 62
143
 10
       15.59810
 20
       27.00420
 30
        8.55000
 11
       15.59810
 21
       27.00420
 31
        6.65000
 12
       15.59810
 22
       28.10420
 32
        6.65000
 13
       15.59810
 23
       28.10420
 33
        8.55000
999
CONSTRUCTION1:CONSTRUCTION1:F2
  0
3DFACE
  8
CONSTRUCTION1
 62
 43
 10
       15.59810
 20
       35.40420
 30
        9.00000
 11
       15.59810
 21
       35.40420
 31
        6.00000
 12
        0.79810
 22
       35.40420
 32
        6.00000
 13
        0.79810
 23
       35.40420
 33
        9.00000
999
CONSTRUCTION1:CONSTRUCTION1:F2:W0
  0
3DFACE
  8
CONSTRUCTION1
 62
143
 10
        2.54810
 20
       35.40420
 30
        8.55000
 11
        2.54810
 21
       35.40420
 31
        6.65000
 12
        1.44810
 22
       35.40420
 32
        6.65000
 13
        1.44810
 23
       35.40420
 33
        8.55000
999
CONSTRUCTION1:CONSTRUCTION1:F2:W1
  0
3DFACE
  8
CONSTRUCTION1
 62
143
 10
        6.39810
 20
       35.40420
 30
        8.55000
 11
        6.39810
 21
       35.40420
 31
        6.65000
 12
        5.29810
 22
       35.40420
 32
        6.65000
 13
        5.29810
 23
       35.40420
 33
        8.55000
999
CONSTRUCTION1:CONSTRUCTION1:F2:W2
  0
3DFACE
  8
CONSTRUCTION1
 62
143
 10
       11.09810
 20
       35.40420
 30
        8.55000
 11
       11.09810
 21
       35.40420
 31
        6.65000
 12
        9.99810
 22
       35.40420
 32
        6.65000
 13
        9.99810
 23
       35.40420
 33
        8.55000
999
CONSTRUCTION1:CONSTRUCTION1:F3
  0
3DFACE
  8
CONSTRUCTION1
 62
 43
 10
        0.79810
 20
       35.40420
 30
        9.00000
 11
        0.79810
 21
       35.40420
 31
        6.00000
 12
        0.79810
 22
        0.80420
 32
        6.00000
 13
        0.79810
 23
        0.80420
 33
        9.00000
999
CONSTRUCTION1:CONSTRUCTION1:F3:W0
  0
3DFACE
  8
CONSTRUCTION1
 62
143
 10
        0.79810
 20
        3.20420
 30
        8.55000
 11
        0.79810
 21
        3.20420
 31
        6.65000
 12
        0.79810
 22
        2.10420
 32
        6.65000
 13
        0.79810
 23
        2.10420
 33
        8.55000
999
CONSTRUCTION1:CONSTRUCTION1:F3:W1
  0
3DFACE
  8
CONSTRUCTION1
 62
143
 10
        0.79810
 20
       11.50420
 30
        8.55000
 11
        0.79810
 21
       11.50420
 31
        6.65000
 12
        0.79810
 22
       10.40420
 32
        6.65000
 13
        0.79810
 23
       10.40420
 33
        8.55000
999
CONSTRUCTION1:CONSTRUCTION1:F3:W2
  0
3DFACE
  8
CONSTRUCTION1
 62
143
 10
        0.79810
 20
       15.65420
 30
        8.55000
 11
        0.79810
 21
       15.65420
 31
        6.65000
 12
        0.79810
 22
       14.55420
 32
        6.65000
 13
        0.79810
 23
       14.55420
 33
        8.55000
999
CONSTRUCTION1:CONSTRUCTION1:F3:W3
  0
3DFACE
  8
CONSTRUCTION1
 62
143
 10
        0.79810
 20
       21.55420
 30
        8.55000
 11
        0.79810
 21
       21.55420
 31
        6.65000
 12
        0.79810
 22
       20.45420
 32
        6.65000
 13
        0.79810
 23
       20.45420
 33
        8.55000
999
CONSTRUCTION1:CONSTRUCTION1:F3:W4
  0
3DFACE
  8
CONSTRUCTION1
 62
143
 10
        0.79810
 20
       19.80420
 30
        8.55000
 11
        0.79810
 21
       19.80420
 31
        6.65000
 12
        0.79810
 22
       18.70420
 32
        6.65000
 13
        0.79810
 23
       18.70420
 33
        8.55000
999
CONSTRUCTION1:CONSTRUCTION1:F3:W5
  0
3DFACE
  8
CONSTRUCTION1
 62
143
 10
        0.79810
 20
       23.95420
 30
        8.55000
 11
        0.79810
 21
       23.95420
 31
        6.65000
 12
        0.79810
 22
       22.85420
 32
        6.65000
 13
        0.79810
 23
       22.85420
 33
        8.55000
999
CONSTRUCTION1:CONSTRUCTION1:F3:W6
  0
3DFACE
  8
CONSTRUCTION1
 62
143
 10
        0.79810
 20
       29.85420
 30
        8.55000
 11
        0.79810
 21
       29.85420
 31
        6.65000
 12
        0.79810
 22
       28.75420
 32
        6.65000
 13
        0.79810
 23
       28.75420
 33
        8.55000
999
CONSTRUCTION1:CONSTRUCTION1:F3:W7
  0
3DFACE
  8
CONSTRUCTION1
 62
143
 10
        0.79810
 20
        4.95420
 30
        8.55000
 11
        0.79810
 21
        4.95420
 31
        6.65000
 12
        0.79810
 22
        3.85420
 32
        6.65000
 13
        0.79810
 23
        3.85420
 33
        8.55000
999
CONSTRUCTION1:CONSTRUCTION1:F3:W8
  0
3DFACE
  8
CONSTRUCTION1
 62
143
 10
        0.79810
 20
        9.10420
 30
        8.55000
 11
        0.79810
 21
        9.10420
 31
        6.65000
 12
        0.79810
 22
        8.00420
 32
        6.65000
 13
        0.79810
 23
        8.00420
 33
        8.55000
999
CONSTRUCTION1:CONSTRUCTION1:F3:W9
  0
3DFACE
  8
CONSTRUCTION1
 62
143
 10
        0.79810
 20
        7.35420
 30
        8.55000
 11
        0.79810
 21
        7.35420
 31
        6.65000
 12
        0.79810
 22
        6.25420
 32
        6.65000
 13
        0.79810
 23
        6.25420
 33
        8.55000
999
CONSTRUCTION1:CONSTRUCTION1:F3:W10
  0
3DFACE
  8
CONSTRUCTION1
 62
143
 10
        0.79810
 20
       13.25420
 30
        8.55000
 11
        0.79810
 21
       13.25420
 31
        6.65000
 12
        0.79810
 22
       12.15420
 32
        6.65000
 13
        0.79810
 23
       12.15420
 33
        8.55000
999
CONSTRUCTION1:CONSTRUCTION1:F3:W11
  0
3DFACE
  8
CONSTRUCTION1
 62
143
 10
        0.79810
 20
       17.40420
 30
        8.55000
 11
        0.79810
 21
       17.40420
 31
        6.65000
 12
        0.79810
 22
       16.30420
 32
        6.65000
 13
        0.79810
 23
       16.30420
 33
        8.55000
999
CONSTRUCTION1:CONSTRUCTION1:F3:W12
  0
3DFACE
  8
CONSTRUCTION1
 62
143
 10
        0.79810
 20
       25.70420
 30
        8.55000
 11
        0.79810
 21
       25.70420
 31
        6.65000
 12
        0.79810
 22
       24.60420
 32
        6.65000
 13
        0.79810
 23
       24.60420
 33
        8.55000
999
CONSTRUCTION1:CONSTRUCTION1:F3:W13
  0
3DFACE
  8
CONSTRUCTION1
 62
143
 10
        0.79810
 20
       28.10420
 30
        8.55000
 11
        0.79810
 21
       28.10420
 31
        6.65000
 12
        0.79810
 22
       27.00420
 32
        6.65000
 13
        0.79810
 23
       27.00420
 33
        8.55000
999
CONSTRUCTION1:CONSTRUCTION1:F4
  0
3DFACE
  8
CONSTRUCTION1
 62
  8
 10
        0.79810
 20
        0.80420
 30
        6.00000
 11
        0.79810
 21
       35.40420
 31
        6.00000
 12
       15.59810
 22
       35.40420
 32
        6.00000
 13
       15.59810
 23
        0.80420
 33
        6.00000
999
CONSTRUCTION1:CONSTRUCTION1:F5
  0
3DFACE
  8
CONSTRUCTION1
 62
 15
 10
        0.79810
 20
        0.80420
 30
        9.00000
 11
       15.59810
 21
        0.80420
 31
        9.00000
 12
       15.59810
 22
       35.40420
 32
        9.00000
 13
        0.79810
 23
       35.40420
 33
        9.00000
999
CONSTRUCTION2:CONSTRUCTION2:F0
  0
3DFACE
  8
CONSTRUCTION2
 62
 43
 10
        0.79810
 20
        0.80420
 30
        6.00000
 11
        0.79810
 21
        0.80420
 31
        3.00000
 12
       15.59810
 22
        0.80420
 32
        3.00000
 13
       15.59810
 23
        0.80420
 33
        6.00000
999
CONSTRUCTION2:CONSTRUCTION2:F0:W0
  0
3DFACE
  8
CONSTRUCTION2
 62
143
 10
        2.34810
 20
        0.80420
 30
        5.70000
 11
        2.34810
 21
        0.80420
 31
        3.80000
 12
        3.44810
 22
        0.80420
 32
        3.80000
 13
        3.44810
 23
        0.80420
 33
        5.70000
999
CONSTRUCTION2:CONSTRUCTION2:F0:W1
  0
3DFACE
  8
CONSTRUCTION2
 62
143
 10
        4.99810
 20
        0.80420
 30
        5.70000
 11
        4.99810
 21
        0.80420
 31
        3.80000
 12
        6.09810
 22
        0.80420
 32
        3.80000
 13
        6.09810
 23
        0.80420
 33
        5.70000
999
CONSTRUCTION2:CONSTRUCTION2:F0:W2
  0
3DFACE
  8
CONSTRUCTION2
 62
143
 10
        7.64810
 20
        0.80420
 30
        5.70000
 11
        7.64810
 21
        0.80420
 31
        3.80000
 12
        8.74810
 22
        0.80420
 32
        3.80000
 13
        8.74810
 23
        0.80420
 33
        5.70000
999
CONSTRUCTION2:CONSTRUCTION2:F0:W3
  0
3DFACE
  8
CONSTRUCTION2
 62
143
 10
       10.29810
 20
        0.80420
 30
        5.70000
 11
       10.29810
 21
        0.80420
 31
        3.80000
 12
       11.39810
 22
        0.80420
 32
        3.80000
 13
       11.39810
 23
        0.80420
 33
        5.70000
999
CONSTRUCTION2:CONSTRUCTION2:F0:W4
  0
3DFACE
  8
CONSTRUCTION2
 62
143
 10
       12.94810
 20
        0.80420
 30
        5.70000
 11
       12.94810
 21
        0.80420
 31
        3.80000
 12
       14.04810
 22
        0.80420
 32
        3.80000
 13
       14.04810
 23
        0.80420
 33
        5.70000
999
CONSTRUCTION2:CONSTRUCTION2:F1
  0
3DFACE
  8
CONSTRUCTION2
 62
 43
 10
       15.59810
 20
        0.80420
 30
        6.00000
 11
       15.59810
 21
        0.80420
 31
        3.00000
 12
       15.59810
 22
       35.40420
 32
        3.00000
 13
       15.59810
 23
       35.40420
 33
        6.00000
999
CONSTRUCTION2:CONSTRUCTION2:F1:W0
  0
3DFACE
  8
CONSTRUCTION2
 62
143
 10
       15.59810
 20
        6.25420
 30
        5.70000
 11
       15.59810
 21
        6.25420
 31
        3.80000
 12
       15.59810
 22
        7.35420
 32
        3.80000
 13
       15.59810
 23
        7.35420
 33
        5.70000
999
CONSTRUCTION2:CONSTRUCTION2:F1:W1
  0
3DFACE
  8
CONSTRUCTION2
 62
143
 10
       15.59810
 20
       12.15420
 30
        5.70000
 11
       15.59810
 21
       12.15420
 31
        3.80000
 12
       15.59810
 22
       13.25420
 32
        3.80000
 13
       15.59810
 23
       13.25420
 33
        5.70000
999
CONSTRUCTION2:CONSTRUCTION2:F1:W2
  0
3DFACE
  8
CONSTRUCTION2
 62
143
 10
       15.59810
 20
       16.30420
 30
        5.70000
 11
       15.59810
 21
       16.30420
 31
        3.80000
 12
       15.59810
 22
       17.40420
 32
        3.80000
 13
       15.59810
 23
       17.40420
 33
        5.70000
999
CONSTRUCTION2:CONSTRUCTION2:F1:W3
  0
3DFACE
  8
CONSTRUCTION2
 62
143
 10
       15.59810
 20
       14.55420
 30
        5.70000
 11
       15.59810
 21
       14.55420
 31
        3.80000
 12
       15.59810
 22
       15.65420
 32
        3.80000
 13
       15.59810
 23
       15.65420
 33
        5.70000
999
CONSTRUCTION2:CONSTRUCTION2:F1:W4
  0
3DFACE
  8
CONSTRUCTION2
 62
143
 10
       15.59810
 20
       20.45420
 30
        5.70000
 11
       15.59810
 21
       20.45420
 31
        3.80000
 12
       15.59810
 22
       21.55420
 32
        3.80000
 13
       15.59810
 23
       21.55420
 33
        5.70000
999
CONSTRUCTION2:CONSTRUCTION2:F1:W5
  0
3DFACE
  8
CONSTRUCTION2
 62
143
 10
       15.59810
 20
       27.00420
 30
        5.70000
 11
       15.59810
 21
       27.00420
 31
        3.80000
 12
       15.59810
 22
       28.10420
 32
        3.80000
 13
       15.59810
 23
       28.10420
 33
        5.70000
999
CONSTRUCTION2:CONSTRUCTION2:F1:W6
  0
3DFACE
  8
CONSTRUCTION2
 62
143
 10
       15.59810
 20
        3.85420
 30
        5.70000
 11
       15.59810
 21
        3.85420
 31
        3.80000
 12
       15.59810
 22
        4.95420
 32
        3.80000
 13
       15.59810
 23
        4.95420
 33
        5.70000
999
CONSTRUCTION2:CONSTRUCTION2:F1:W7
  0
3DFACE
  8
CONSTRUCTION2
 62
143
 10
       15.59810
 20
       24.60420
 30
        5.70000
 11
       15.59810
 21
       24.60420
 31
        3.80000
 12
       15.59810
 22
       25.70420
 32
        3.80000
 13
       15.59810
 23
       25.70420
 33
        5.70000
999
CONSTRUCTION2:CONSTRUCTION2:F1:W8
  0
3DFACE
  8
CONSTRUCTION2
 62
143
 10
       15.59810
 20
        2.10420
 30
        5.70000
 11
       15.59810
 21
        2.10420
 31
        3.80000
 12
       15.59810
 22
        3.20420
 32
        3.80000
 13
       15.59810
 23
        3.20420
 33
        5.70000
999
CONSTRUCTION2:CONSTRUCTION2:F1:W9
  0
3DFACE
  8
CONSTRUCTION2
 62
143
 10
       15.59810
 20
        8.00420
 30
        5.70000
 11
       15.59810
 21
        8.00420
 31
        3.80000
 12
       15.59810
 22
        9.10420
 32
        3.80000
 13
       15.59810
 23
        9.10420
 33
        5.70000
999
CONSTRUCTION2:CONSTRUCTION2:F1:W10
  0
3DFACE
  8
CONSTRUCTION2
 62
143
 10
       15.59810
 20
       10.40420
 30
        5.70000
 11
       15.59810
 21
       10.40420
 31
        3.80000
 12
       15.59810
 22
       11.50420
 32
        3.80000
 13
       15.59810
 23
       11.50420
 33
        5.70000
999
CONSTRUCTION2:CONSTRUCTION2:F1:W11
  0
3DFACE
  8
CONSTRUCTION2
 62
143
 10
       15.59810
 20
       18.70420
 30
        5.70000
 11
       15.59810
 21
       18.70420
 31
        3.80000
 12
       15.59810
 22
       19.80420
 32
        3.80000
 13
       15.59810
 23
       19.80420
 33
        5.70000
999
CONSTRUCTION2:CONSTRUCTION2:F1:W12
  0
3DFACE
  8
CONSTRUCTION2
 62
143
 10
       15.59810
 20
       22.85420
 30
        5.70000
 11
       15.59810
 21
       22.85420
 31
        3.80000
 12
       15.59810
 22
       23.95420
 32
        3.80000
 13
       15.59810
 23
       23.95420
 33
        5.70000
999
CONSTRUCTION2:CONSTRUCTION2:F1:W13
  0
3DFACE
  8
CONSTRUCTION2
 62
143
 10
       15.59810
 20
       28.75420
 30
        5.70000
 11
       15.59810
 21
       28.75420
 31
        3.80000
 12
       15.59810
 22
       29.85420
 32
        3.80000
 13
       15.59810
 23
       29.85420
 33
        5.70000
999
CONSTRUCTION2:CONSTRUCTION2:F2
  0
3DFACE
  8
CONSTRUCTION2
 62
 43
 10
       15.59810
 20
       35.40420
 30
        6.00000
 11
       15.59810
 21
       35.40420
 31
        3.00000
 12
        0.79810
 22
       35.40420
 32
        3.00000
 13
        0.79810
 23
       35.40420
 33
        6.00000
999
CONSTRUCTION2:CONSTRUCTION2:F2:W0
  0
3DFACE
  8
CONSTRUCTION2
 62
143
 10
        2.54810
 20
       35.40420
 30
        5.70000
 11
        2.54810
 21
       35.40420
 31
        3.80000
 12
        1.44810
 22
       35.40420
 32
        3.80000
 13
        1.44810
 23
       35.40420
 33
        5.70000
999
CONSTRUCTION2:CONSTRUCTION2:F2:W1
  0
3DFACE
  8
CONSTRUCTION2
 62
143
 10
        6.39810
 20
       35.40420
 30
        5.70000
 11
        6.39810
 21
       35.40420
 31
        3.80000
 12
        5.29810
 22
       35.40420
 32
        3.80000
 13
        5.29810
 23
       35.40420
 33
        5.70000
999
CONSTRUCTION2:CONSTRUCTION2:F2:W2
  0
3DFACE
  8
CONSTRUCTION2
 62
143
 10
       11.09810
 20
       35.40420
 30
        5.70000
 11
       11.09810
 21
       35.40420
 31
        3.80000
 12
        9.99810
 22
       35.40420
 32
        3.80000
 13
        9.99810
 23
       35.40420
 33
        5.70000
999
CONSTRUCTION2:CONSTRUCTION2:F3
  0
3DFACE
  8
CONSTRUCTION2
 62
 43
 10
        0.79810
 20
       35.40420
 30
        6.00000
 11
        0.79810
 21
       35.40420
 31
        3.00000
 12
        0.79810
 22
        0.80420
 32
        3.00000
 13
        0.79810
 23
        0.80420
 33
        6.00000
999
CONSTRUCTION2:CONSTRUCTION2:F3:W0
  0
3DFACE
  8
CONSTRUCTION2
 62
143
 10
        0.79810
 20
        9.10420
 30
        5.70000
 11
        0.79810
 21
        9.10420
 31
        3.80000
 12
        0.79810
 22
        8.00420
 32
        3.80000
 13
        0.79810
 23
        8.00420
 33
        5.70000
999
CONSTRUCTION2:CONSTRUCTION2:F3:W1
  0
3DFACE
  8
CONSTRUCTION2
 62
143
 10
        0.79810
 20
        7.35420
 30
        5.70000
 11
        0.79810
 21
        7.35420
 31
        3.80000
 12
        0.79810
 22
        6.25420
 32
        3.80000
 13
        0.79810
 23
        6.25420
 33
        5.70000
999
CONSTRUCTION2:CONSTRUCTION2:F3:W2
  0
3DFACE
  8
CONSTRUCTION2
 62
143
 10
        0.79810
 20
       11.50420
 30
        5.70000
 11
        0.79810
 21
       11.50420
 31
        3.80000
 12
        0.79810
 22
       10.40420
 32
        3.80000
 13
        0.79810
 23
       10.40420
 33
        5.70000
999
CONSTRUCTION2:CONSTRUCTION2:F3:W3
  0
3DFACE
  8
CONSTRUCTION2
 62
143
 10
        0.79810
 20
       17.40420
 30
        5.70000
 11
        0.79810
 21
       17.40420
 31
        3.80000
 12
        0.79810
 22
       16.30420
 32
        3.80000
 13
        0.79810
 23
       16.30420
 33
        5.70000
999
CONSTRUCTION2:CONSTRUCTION2:F3:W4
  0
3DFACE
  8
CONSTRUCTION2
 62
143
 10
        0.79810
 20
       29.85420
 30
        5.70000
 11
        0.79810
 21
       29.85420
 31
        3.80000
 12
        0.79810
 22
       28.75420
 32
        3.80000
 13
        0.79810
 23
       28.75420
 33
        5.70000
999
CONSTRUCTION2:CONSTRUCTION2:F3:W5
  0
3DFACE
  8
CONSTRUCTION2
 62
143
 10
        0.79810
 20
       19.80420
 30
        5.70000
 11
        0.79810
 21
       19.80420
 31
        3.80000
 12
        0.79810
 22
       18.70420
 32
        3.80000
 13
        0.79810
 23
       18.70420
 33
        5.70000
999
CONSTRUCTION2:CONSTRUCTION2:F3:W6
  0
3DFACE
  8
CONSTRUCTION2
 62
143
 10
        0.79810
 20
       25.70420
 30
        5.70000
 11
        0.79810
 21
       25.70420
 31
        3.80000
 12
        0.79810
 22
       24.60420
 32
        3.80000
 13
        0.79810
 23
       24.60420
 33
        5.70000
999
CONSTRUCTION2:CONSTRUCTION2:F3:W7
  0
3DFACE
  8
CONSTRUCTION2
 62
143
 10
        0.79810
 20
       23.95420
 30
        5.70000
 11
        0.79810
 21
       23.95420
 31
        3.80000
 12
        0.79810
 22
       22.85420
 32
        3.80000
 13
        0.79810
 23
       22.85420
 33
        5.70000
999
CONSTRUCTION2:CONSTRUCTION2:F3:W8
  0
3DFACE
  8
CONSTRUCTION2
 62
143
 10
        0.79810
 20
        3.20420
 30
        5.70000
 11
        0.79810
 21
        3.20420
 31
        3.80000
 12
        0.79810
 22
        2.10420
 32
        3.80000
 13
        0.79810
 23
        2.10420
 33
        5.70000
999
CONSTRUCTION2:CONSTRUCTION2:F3:W9
  0
3DFACE
  8
CONSTRUCTION2
 62
143
 10
        0.79810
 20
        4.95420
 30
        5.70000
 11
        0.79810
 21
        4.95420
 31
        3.80000
 12
        0.79810
 22
        3.85420
 32
        3.80000
 13
        0.79810
 23
        3.85420
 33
        5.70000
999
CONSTRUCTION2:CONSTRUCTION2:F3:W10
  0
3DFACE
  8
CONSTRUCTION2
 62
143
 10
        0.79810
 20
       13.25420
 30
        5.70000
 11
        0.79810
 21
       13.25420
 31
        3.80000
 12
        0.79810
 22
       12.15420
 32
        3.80000
 13
        0.79810
 23
       12.15420
 33
        5.70000
999
CONSTRUCTION2:CONSTRUCTION2:F3:W11
  0
3DFACE
  8
CONSTRUCTION2
 62
143
 10
        0.79810
 20
       15.65420
 30
        5.70000
 11
        0.79810
 21
       15.65420
 31
        3.80000
 12
        0.79810
 22
       14.55420
 32
        3.80000
 13
        0.79810
 23
       14.55420
 33
        5.70000
999
CONSTRUCTION2:CONSTRUCTION2:F3:W12
  0
3DFACE
  8
CONSTRUCTION2
 62
143
 10
        0.79810
 20
       21.55420
 30
        5.70000
 11
        0.79810
 21
       21.55420
 31
        3.80000
 12
        0.79810
 22
       20.45420
 32
        3.80000
 13
        0.79810
 23
       20.45420
 33
        5.70000
999
CONSTRUCTION2:CONSTRUCTION2:F3:W13
  0
3DFACE
  8
CONSTRUCTION2
 62
143
 10
        0.79810
 20
       28.10420
 30
        5.70000
 11
        0.79810
 21
       28.10420
 31
        3.80000
 12
        0.79810
 22
       27.00420
 32
        3.80000
 13
        0.79810
 23
       27.00420
 33
        5.70000
999
CONSTRUCTION2:CONSTRUCTION2:F4
  0
3DFACE
  8
CONSTRUCTION2
 62
  8
 10
        0.79810
 20
        0.80420
 30
        3.00000
 11
        0.79810
 21
       35.40420
 31
        3.00000
 12
       15.59810
 22
       35.40420
 32
        3.00000
 13
       15.59810
 23
        0.80420
 33
        3.00000
999
CONSTRUCTION2:CONSTRUCTION2:F5
  0
3DFACE
  8
CONSTRUCTION2
 62
 15
 10
        0.79810
 20
        0.80420
 30
        6.00000
 11
       15.59810
 21
        0.80420
 31
        6.00000
 12
       15.59810
 22
       35.40420
 32
        6.00000
 13
        0.79810
 23
       35.40420
 33
        6.00000
999
CONSTRUCTION3:CONSTRUCTION3:F0
  0
3DFACE
  8
CONSTRUCTION3
 62
 43
 10
        0.79810
 20
        0.80420
 30
        3.00000
 11
        0.79810
 21
        0.80420
 31
        0.00000
 12
       15.59810
 22
        0.80420
 32
        0.00000
 13
       15.59810
 23
        0.80420
 33
        3.00000
999
CONSTRUCTION3:CONSTRUCTION3:F0:W0
  0
3DFACE
  8
CONSTRUCTION3
 62
143
 10
        4.99810
 20
        0.80420
 30
        2.85000
 11
        4.99810
 21
        0.80420
 31
        0.95000
 12
        6.09810
 22
        0.80420
 32
        0.95000
 13
        6.09810
 23
        0.80420
 33
        2.85000
999
CONSTRUCTION3:CONSTRUCTION3:F0:W1
  0
3DFACE
  8
CONSTRUCTION3
 62
143
 10
        7.64810
 20
        0.80420
 30
        2.85000
 11
        7.64810
 21
        0.80420
 31
        0.95000
 12
        8.74810
 22
        0.80420
 32
        0.95000
 13
        8.74810
 23
        0.80420
 33
        2.85000
999
CONSTRUCTION3:CONSTRUCTION3:F0:W2
  0
3DFACE
  8
CONSTRUCTION3
 62
143
 10
       10.29810
 20
        0.80420
 30
        2.85000
 11
       10.29810
 21
        0.80420
 31
        0.95000
 12
       11.39810
 22
        0.80420
 32
        0.95000
 13
       11.39810
 23
        0.80420
 33
        2.85000
999
CONSTRUCTION3:CONSTRUCTION3:F0:W3
  0
3DFACE
  8
CONSTRUCTION3
 62
143
 10
       12.94810
 20
        0.80420
 30
        2.85000
 11
       12.94810
 21
        0.80420
 31
        0.95000
 12
       14.04810
 22
        0.80420
 32
        0.95000
 13
       14.04810
 23
        0.80420
 33
        2.85000
999
CONSTRUCTION3:CONSTRUCTION3:F0:W4
  0
3DFACE
  8
CONSTRUCTION3
 62
143
 10
        1.94810
 20
        0.80420
 30
        2.60000
 11
        1.94810
 21
        0.80420
 31
        0.00000
 12
        3.84810
 22
        0.80420
 32
        0.00000
 13
        3.84810
 23
        0.80420
 33
        2.60000
999
CONSTRUCTION3:CONSTRUCTION3:F1
  0
3DFACE
  8
CONSTRUCTION3
 62
 43
 10
       15.59810
 20
        0.80420
 30
        3.00000
 11
       15.59810
 21
        0.80420
 31
        0.00000
 12
       15.59810
 22
       35.40420
 32
        0.00000
 13
       15.59810
 23
       35.40420
 33
        3.00000
999
CONSTRUCTION3:CONSTRUCTION3:F1:W0
  0
3DFACE
  8
CONSTRUCTION3
 62
143
 10
       15.59810
 20
       33.30420
 30
        1.65000
 11
       15.59810
 21
       33.30420
 31
        0.85000
 12
       15.59810
 22
       33.70420
 32
        0.85000
 13
       15.59810
 23
       33.70420
 33
        1.65000
999
CONSTRUCTION3:CONSTRUCTION3:F1:W1
  0
3DFACE
  8
CONSTRUCTION3
 62
143
 10
       15.59810
 20
       32.30420
 30
        1.65000
 11
       15.59810
 21
       32.30420
 31
        0.85000
 12
       15.59810
 22
       32.70420
 32
        0.85000
 13
       15.59810
 23
       32.70420
 33
        1.65000
999
CONSTRUCTION3:CONSTRUCTION3:F1:W2
  0
3DFACE
  8
CONSTRUCTION3
 62
143
 10
       15.59810
 20
        2.10420
 30
        2.85000
 11
       15.59810
 21
        2.10420
 31
        0.95000
 12
       15.59810
 22
        3.20420
 32
        0.95000
 13
       15.59810
 23
        3.20420
 33
        2.85000
999
CONSTRUCTION3:CONSTRUCTION3:F1:W3
  0
3DFACE
  8
CONSTRUCTION3
 62
143
 10
       15.59810
 20
        3.85420
 30
        2.85000
 11
       15.59810
 21
        3.85420
 31
        0.95000
 12
       15.59810
 22
        4.95420
 32
        0.95000
 13
       15.59810
 23
        4.95420
 33
        2.85000
999
CONSTRUCTION3:CONSTRUCTION3:F1:W4
  0
3DFACE
  8
CONSTRUCTION3
 62
143
 10
       15.59810
 20
       12.15420
 30
        2.85000
 11
       15.59810
 21
       12.15420
 31
        0.95000
 12
       15.59810
 22
       13.25420
 32
        0.95000
 13
       15.59810
 23
       13.25420
 33
        2.85000
999
CONSTRUCTION3:CONSTRUCTION3:F1:W5
  0
3DFACE
  8
CONSTRUCTION3
 62
143
 10
       15.59810
 20
       10.40420
 30
        2.85000
 11
       15.59810
 21
       10.40420
 31
        0.95000
 12
       15.59810
 22
       11.50420
 32
        0.95000
 13
       15.59810
 23
       11.50420
 33
        2.85000
999
CONSTRUCTION3:CONSTRUCTION3:F1:W6
  0
3DFACE
  8
CONSTRUCTION3
 62
143
 10
       15.59810
 20
       16.30420
 30
        2.85000
 11
       15.59810
 21
       16.30420
 31
        0.95000
 12
       15.59810
 22
       17.40420
 32
        0.95000
 13
       15.59810
 23
       17.40420
 33
        2.85000
999
CONSTRUCTION3:CONSTRUCTION3:F1:W7
  0
3DFACE
  8
CONSTRUCTION3
 62
143
 10
       15.59810
 20
       14.55420
 30
        2.85000
 11
       15.59810
 21
       14.55420
 31
        0.95000
 12
       15.59810
 22
       15.65420
 32
        0.95000
 13
       15.59810
 23
       15.65420
 33
        2.85000
999
CONSTRUCTION3:CONSTRUCTION3:F1:W8
  0
3DFACE
  8
CONSTRUCTION3
 62
143
 10
       15.59810
 20
       20.45420
 30
        2.85000
 11
       15.59810
 21
       20.45420
 31
        0.95000
 12
       15.59810
 22
       21.55420
 32
        0.95000
 13
       15.59810
 23
       21.55420
 33
        2.85000
999
CONSTRUCTION3:CONSTRUCTION3:F1:W9
  0
3DFACE
  8
CONSTRUCTION3
 62
143
 10
       15.59810
 20
       18.70420
 30
        2.85000
 11
       15.59810
 21
       18.70420
 31
        0.95000
 12
       15.59810
 22
       19.80420
 32
        0.95000
 13
       15.59810
 23
       19.80420
 33
        2.85000
999
CONSTRUCTION3:CONSTRUCTION3:F1:W10
  0
3DFACE
  8
CONSTRUCTION3
 62
143
 10
       15.59810
 20
       24.60420
 30
        2.85000
 11
       15.59810
 21
       24.60420
 31
        0.95000
 12
       15.59810
 22
       25.70420
 32
        0.95000
 13
       15.59810
 23
       25.70420
 33
        2.85000
999
CONSTRUCTION3:CONSTRUCTION3:F1:W11
  0
3DFACE
  8
CONSTRUCTION3
 62
143
 10
       15.59810
 20
       22.85420
 30
        2.85000
 11
       15.59810
 21
       22.85420
 31
        0.95000
 12
       15.59810
 22
       23.95420
 32
        0.95000
 13
       15.59810
 23
       23.95420
 33
        2.85000
999
CONSTRUCTION3:CONSTRUCTION3:F1:W12
  0
3DFACE
  8
CONSTRUCTION3
 62
143
 10
       15.59810
 20
       28.75420
 30
        2.85000
 11
       15.59810
 21
       28.75420
 31
        0.95000
 12
       15.59810
 22
       29.85420
 32
        0.95000
 13
       15.59810
 23
       29.85420
 33
        2.85000
999
CONSTRUCTION3:CONSTRUCTION3:F1:W13
  0
3DFACE
  8
CONSTRUCTION3
 62
143
 10
       15.59810
 20
       27.00420
 30
        2.85000
 11
       15.59810
 21
       27.00420
 31
        0.95000
 12
       15.59810
 22
       28.10420
 32
        0.95000
 13
       15.59810
 23
       28.10420
 33
        2.85000
999
CONSTRUCTION3:CONSTRUCTION3:F1:W14
  0
3DFACE
  8
CONSTRUCTION3
 62
143
 10
       15.59810
 20
        6.25420
 30
        2.40000
 11
       15.59810
 21
        6.25420
 31
        0.00000
 12
       15.59810
 22
        7.35420
 32
        0.00000
 13
       15.59810
 23
        7.35420
 33
        2.40000
999
CONSTRUCTION3:CONSTRUCTION3:F1:W15
  0
3DFACE
  8
CONSTRUCTION3
 62
143
 10
       15.59810
 20
        8.00420
 30
        2.85000
 11
       15.59810
 21
        8.00420
 31
        0.95000
 12
       15.59810
 22
        9.10420
 32
        0.95000
 13
       15.59810
 23
        9.10420
 33
        2.85000
999
CONSTRUCTION3:CONSTRUCTION3:F2
  0
3DFACE
  8
CONSTRUCTION3
 62
 43
 10
       15.59810
 20
       35.40420
 30
        3.00000
 11
       15.59810
 21
       35.40420
 31
        0.00000
 12
        0.79810
 22
       35.40420
 32
        0.00000
 13
        0.79810
 23
       35.40420
 33
        3.00000
999
CONSTRUCTION3:CONSTRUCTION3:F2:W0
  0
3DFACE
  8
CONSTRUCTION3
 62
143
 10
       14.94810
 20
       35.40420
 30
        1.95000
 11
       14.94810
 21
       35.40420
 31
        0.65000
 12
       13.84810
 22
       35.40420
 32
        0.65000
 13
       13.84810
 23
       35.40420
 33
        1.95000
999
CONSTRUCTION3:CONSTRUCTION3:F2:W1
  0
3DFACE
  8
CONSTRUCTION3
 62
143
 10
       10.86840
 20
       35.40420
 30
        2.50000
 11
       10.86840
 21
       35.40420
 31
        1.70000
 12
       10.26840
 22
       35.40420
 32
        1.70000
 13
       10.26840
 23
       35.40420
 33
        2.50000
999
CONSTRUCTION3:CONSTRUCTION3:F3
  0
3DFACE
  8
CONSTRUCTION3
 62
 43
 10
        0.79810
 20
       35.40420
 30
        3.00000
 11
        0.79810
 21
       35.40420
 31
        0.00000
 12
        0.79810
 22
        0.80420
 32
        0.00000
 13
        0.79810
 23
        0.80420
 33
        3.00000
999
CONSTRUCTION3:CONSTRUCTION3:F3:W0
  0
3DFACE
  8
CONSTRUCTION3
 62
143
 10
        0.79810
 20
        3.20420
 30
        2.85000
 11
        0.79810
 21
        3.20420
 31
        0.95000
 12
        0.79810
 22
        2.10420
 32
        0.95000
 13
        0.79810
 23
        2.10420
 33
        2.85000
999
CONSTRUCTION3:CONSTRUCTION3:F3:W1
  0
3DFACE
  8
CONSTRUCTION3
 62
143
 10
        0.79810
 20
        4.95420
 30
        2.85000
 11
        0.79810
 21
        4.95420
 31
        0.95000
 12
        0.79810
 22
        3.85420
 32
        0.95000
 13
        0.79810
 23
        3.85420
 33
        2.85000
999
CONSTRUCTION3:CONSTRUCTION3:F3:W2
  0
3DFACE
  8
CONSTRUCTION3
 62
143
 10
        0.79810
 20
        9.10420
 30
        2.85000
 11
        0.79810
 21
        9.10420
 31
        0.95000
 12
        0.79810
 22
        8.00420
 32
        0.95000
 13
        0.79810
 23
        8.00420
 33
        2.85000
999
CONSTRUCTION3:CONSTRUCTION3:F3:W3
  0
3DFACE
  8
CONSTRUCTION3
 62
143
 10
        0.79810
 20
       13.25420
 30
        2.85000
 11
        0.79810
 21
       13.25420
 31
        0.95000
 12
        0.79810
 22
       12.15420
 32
        0.95000
 13
        0.79810
 23
       12.15420
 33
        2.85000
999
CONSTRUCTION3:CONSTRUCTION3:F3:W4
  0
3DFACE
  8
CONSTRUCTION3
 62
143
 10
        0.79810
 20
       11.50420
 30
        2.85000
 11
        0.79810
 21
       11.50420
 31
        0.95000
 12
        0.79810
 22
       10.40420
 32
        0.95000
 13
        0.79810
 23
       10.40420
 33
        2.85000
999
CONSTRUCTION3:CONSTRUCTION3:F3:W5
  0
3DFACE
  8
CONSTRUCTION3
 62
143
 10
        0.79810
 20
       17.40420
 30
        2.85000
 11
        0.79810
 21
       17.40420
 31
        0.95000
 12
        0.79810
 22
       16.30420
 32
        0.95000
 13
        0.79810
 23
       16.30420
 33
        2.85000
999
CONSTRUCTION3:CONSTRUCTION3:F3:W6
  0
3DFACE
  8
CONSTRUCTION3
 62
143
 10
        0.79810
 20
       15.65420
 30
        2.85000
 11
        0.79810
 21
       15.65420
 31
        0.95000
 12
        0.79810
 22
       14.55420
 32
        0.95000
 13
        0.79810
 23
       14.55420
 33
        2.85000
999
CONSTRUCTION3:CONSTRUCTION3:F3:W7
  0
3DFACE
  8
CONSTRUCTION3
 62
143
 10
        0.79810
 20
       21.55420
 30
        2.85000
 11
        0.79810
 21
       21.55420
 31
        0.95000
 12
        0.79810
 22
       20.45420
 32
        0.95000
 13
        0.79810
 23
       20.45420
 33
        2.85000
999
CONSTRUCTION3:CONSTRUCTION3:F3:W8
  0
3DFACE
  8
CONSTRUCTION3
 62
143
 10
        0.79810
 20
       19.80420
 30
        2.85000
 11
        0.79810
 21
       19.80420
 31
        0.95000
 12
        0.79810
 22
       18.70420
 32
        0.95000
 13
        0.79810
 23
       18.70420
 33
        2.85000
999
CONSTRUCTION3:CONSTRUCTION3:F3:W9
  0
3DFACE
  8
CONSTRUCTION3
 62
143
 10
        0.79810
 20
       25.70420
 30
        2.85000
 11
        0.79810
 21
       25.70420
 31
        0.95000
 12
        0.79810
 22
       24.60420
 32
        0.95000
 13
        0.79810
 23
       24.60420
 33
        2.85000
999
CONSTRUCTION3:CONSTRUCTION3:F3:W10
  0
3DFACE
  8
CONSTRUCTION3
 62
143
 10
        0.79810
 20
       23.95420
 30
        2.85000
 11
        0.79810
 21
       23.95420
 31
        0.95000
 12
        0.79810
 22
       22.85420
 32
        0.95000
 13
        0.79810
 23
       22.85420
 33
        2.85000
999
CONSTRUCTION3:CONSTRUCTION3:F3:W11
  0
3DFACE
  8
CONSTRUCTION3
 62
143
 10
        0.79810
 20
       29.85420
 30
        2.85000
 11
        0.79810
 21
       29.85420
 31
        0.95000
 12
        0.79810
 22
       28.75420
 32
        0.95000
 13
        0.79810
 23
       28.75420
 33
        2.85000
999
CONSTRUCTION3:CONSTRUCTION3:F3:W12
  0
3DFACE
  8
CONSTRUCTION3
 62
143
 10
        0.79810
 20
       28.10420
 30
        2.85000
 11
        0.79810
 21
       28.10420
 31
        0.95000
 12
        0.79810
 22
       27.00420
 32
        0.95000
 13
        0.79810
 23
       27.00420
 33
        2.85000
999
CONSTRUCTION3:CONSTRUCTION3:F3:W13
  0
3DFACE
  8
CONSTRUCTION3
 62
143
 10
        0.79810
 20
        7.35420
 30
        2.85000
 11
        0.79810
 21
        7.35420
 31
        0.95000
 12
        0.79810
 22
        6.25420
 32
        0.95000
 13
        0.79810
 23
        6.25420
 33
        2.85000
999
CONSTRUCTION3:CONSTRUCTION3:F4
  0
3DFACE
  8
CONSTRUCTION3
 62
  8
 10
        0.79810
 20
        0.80420
 30
        0.00000
 11
        0.79810
 21
       35.40420
 31
        0.00000
 12
       15.59810
 22
       35.40420
 32
        0.00000
 13
       15.59810
 23
        0.80420
 33
        0.00000
999
CONSTRUCTION3:CONSTRUCTION3:F5
  0
3DFACE
  8
CONSTRUCTION3
 62
 15
 10
        0.79810
 20
        0.80420
 30
        3.00000
 11
       15.59810
 21
        0.80420
 31
        3.00000
 12
       15.59810
 22
       35.40420
 32
        3.00000
 13
        0.79810
 23
       35.40420
 33
        3.00000
999
CONSTRUCTION0:DayRefPt:1
  0
CIRCLE
  8
CONSTRUCTION0
 62
 10
 10
        8.19806
 20
       18.10425
 30
        9.85000
 40
        0.20000
999
CONSTRUCTION1:DayRefPt:1
  0
CIRCLE
  8
CONSTRUCTION1
 62
 10
 10
        8.19806
 20
       18.10425
 30
        6.85000
 40
        0.20000
999
CONSTRUCTION2:DayRefPt:1
  0
CIRCLE
  8
CONSTRUCTION2
 62
 10
 10
        8.19806
 20
       18.10425
 30
        3.85000
 40
        0.20000
999
CONSTRUCTION3:DayRefPt:1
  0
CIRCLE
  8
CONSTRUCTION3
 62
 10
 10
        8.19806
 20
       18.10425
 30
        0.85000
 40
        0.20000
  0
ENDSEC
  0
EOF
