  0
SECTION
  2
ENTITIES
999
DXF created from EnergyPlus
999
Program Version,EnergyPlus, Version 8.4.0-09f5359d8a, YMD=2020.10.20 20:36
999
Polygon Action,TRIANGULATE3DFACE
999
Color Scheme,Default
999
Text - True North
  0
TEXT
  8
1
  6
Continuous
 62
  3
 10
      -10.79820
 20
        3.70110
 30
        0.10000
 40
 .25
  1
True North
 41
 0.0
  7
MONOTXT
210
0.0
220
0.0
230
1.0
999
Text - Building Title
  0
TEXT
  8
1
  6
Continuous
 62
  3
 10
      -13.79820
 20
       -0.29890
 30
        0.10000
 40
 .4
  1
Building - Building
 41
 0.0
  7
MONOTXT
210
0.0
220
0.0
230
1.0
999
North Arrow Stem
  0
3DFACE
  8
1
 62
  3
 10
       -9.79820
 20
        3.70110
 30
        0.10000
 11
       -9.79820
 21
        3.70110
 31
        0.00000
 12
       -9.79820
 22
        0.70110
 32
        0.00000
 13
       -9.79820
 23
        0.70110
 33
        0.10000
999
North Arrow Head 1
  0
3DFACE
  8
1
 62
  3
 10
       -9.79820
 20
        3.70110
 30
        0.10000
 11
       -9.79820
 21
        3.70110
 31
        0.00000
 12
      -10.29820
 22
        2.83507
 32
        0.00000
 13
      -10.29820
 23
        2.83507
 33
        0.10000
999
North Arrow Head 2
  0
3DFACE
  8
1
 62
  3
 10
       -9.79820
 20
        3.70110
 30
        0.10000
 11
       -9.79820
 21
        3.70110
 31
        0.00000
 12
       -9.29820
 22
        2.83507
 32
        0.00000
 13
       -9.29820
 23
        2.83507
 33
        0.10000
999
North Arrow Side 1
  0
3DFACE
  8
1
 62
  3
 10
      -10.29820
 20
        5.20110
 30
        0.10000
 11
      -10.29820
 21
        5.20110
 31
        0.00000
 12
      -10.29820
 22
        4.20110
 32
        0.00000
 13
      -10.29820
 23
        4.20110
 33
        0.10000
999
North Arrow Side 2
  0
3DFACE
  8
1
 62
  3
 10
      -10.29820
 20
        5.20110
 30
        0.10000
 11
      -10.29820
 21
        5.20110
 31
        0.00000
 12
       -9.29820
 22
        4.20110
 32
        0.00000
 13
       -9.29820
 23
        4.20110
 33
        0.10000
999
North Arrow Side 3
  0
3DFACE
  8
1
 62
  3
 10
       -9.29820
 20
        5.20110
 30
        0.10000
 11
       -9.29820
 21
        5.20110
 31
        0.00000
 12
       -9.29820
 22
        4.20110
 32
        0.00000
 13
       -9.29820
 23
        4.20110
 33
        0.10000
999
Zone Names
999
Zone=1:CONSTRUCTION
999
CONSTRUCTION:CONSTRUCTION:F2
  0
3DFACE
  8
CONSTRUCTION
 62
 43
 10
        0.20180
 20
        0.70110
 30
        5.00000
 11
        0.20180
 21
        0.70110
 31
        0.00000
 12
       15.27630
 22
        0.70110
 32
        0.00000
 13
       15.27630
 23
        0.70110
 33
        5.00000
999
CONSTRUCTION:CONSTRUCTION:F3
  0
3DFACE
  8
CONSTRUCTION
 62
 43
 10
       15.27630
 20
        0.70110
 30
        5.00000
 11
       15.27630
 21
        0.70110
 31
        0.00000
 12
       15.27630
 22
       12.99830
 32
        0.00000
 13
       15.27630
 23
       12.99830
 33
        5.00000
999
CONSTRUCTION:CONSTRUCTION:F4
  0
3DFACE
  8
CONSTRUCTION
 62
 43
 10
       15.27630
 20
       12.99830
 30
        5.00000
 11
       15.27630
 21
       12.99830
 31
        0.00000
 12
        0.20180
 22
       12.99830
 32
        0.00000
 13
        0.20180
 23
       12.99830
 33
        5.00000
999
CONSTRUCTION:CONSTRUCTION:F5
  0
3DFACE
  8
CONSTRUCTION
 62
 43
 10
        0.20180
 20
       12.99830
 30
        5.00000
 11
        0.20180
 21
       12.99830
 31
        0.00000
 12
        0.20180
 22
        0.70110
 32
        0.00000
 13
        0.20180
 23
        0.70110
 33
        5.00000
999
CONSTRUCTION:CONSTRUCTION:F0
  0
3DFACE
  8
CONSTRUCTION
 62
  8
 10
        0.20180
 20
        0.70110
 30
        0.00000
 11
        0.20180
 21
       12.99830
 31
        0.00000
 12
       15.27630
 22
       12.99830
 32
        0.00000
 13
       15.27630
 23
        0.70110
 33
        0.00000
999
CONSTRUCTION:CONSTRUCTION:F1
  0
3DFACE
  8
CONSTRUCTION
 62
 15
 10
        0.20180
 20
        0.70110
 30
        5.00000
 11
       15.27630
 21
        0.70110
 31
        5.00000
 12
       15.27630
 22
       12.99830
 32
        5.00000
 13
        0.20180
 23
       12.99830
 33
        5.00000
999
CONSTRUCTION:DayRefPt:1
  0
CIRCLE
  8
CONSTRUCTION
 62
 10
 10
        7.73905
 20
        6.84972
 30
        0.85000
 40
        0.20000
  0
ENDSEC
  0
EOF
